***** HSPICE  --  A-2007.09  32-BIT    (Aug 28 2007) 22:27:25 06/16/2018 winnt
 Input File: d:\seafile\大三下学期\模拟集成电路\project_twostageota\ota_test.sp
 lic:
 lic: FLEXlm: v8.5b
 lic: USER:   Zichen Fan           HOSTNAME: DESKTOP-V3SQE64
 lic: HOSTID: "985fd3462180 0205857feb80 985fd346217f 9a5fd346207e 9a5fd346257e"
 lic: Using FLEXlm license file:
 lic: C:\synopsys\Hspice_A-2007.09\hspice_2007-09.lic
 lic: Checkout 1 hspice;  Encryption code: AD47C1C891DA5D596A45
 lic: License/Maintenance for hspice will expire on 31-dec-2020/2007.9
 lic: NODE LOCKED license on hostid "985fd3462180 0205857feb80 985fd346217f 9a5f
 lic:
 Init: hspice initialization file: C:\synopsys\Hspice_A-2007.09\hspice.ini
 init: begin read circuit files,  cpu clock=  9.30E-02
       option post
       option brief
 init: end read circuit files,  cpu clock=  1.04E-01 memory=    149 kb
 init: begin check errors,  cpu clock=  1.04E-01
 init: end check errors,  cpu clock=  1.08E-01 memory=    284 kb
 init: begin setup matrix, pivot=    10 cpu clock=  1.08E-01
       establish matrix -- done,  cpu clock=  1.12E-01 memory=    292 kb
       re-order matrix -- done,  cpu clock=  1.15E-01 memory=    297 kb
 init: end setup matrix,  cpu clock=  1.23E-01 memory=    322 kb
 dcop: begin dcop,  cpu clock=  1.97E-01
 dcop: end dcop,  cpu clock=  2.13E-01 memory=    322 kb  tot_iter=      13
 output: d:\seafile\大三下学期\模拟集成电路\project_twostageota\ota_test.ac0
 sweep: ac ac0    begin, #sweeps=  71 cpu clock=  2.31E-01
 ac: frequency=    1.26E+03
 ac: frequency=    5.01E+03
 ac: frequency=    2.51E+04
 ac: frequency=    1.26E+05
 ac: frequency=    6.31E+05
 ac: frequency=    3.16E+06
 ac: frequency=    1.58E+07
 ac: frequency=    7.94E+07
 ac: frequency=    3.98E+08
 ac: frequency=    2.00E+09
 ac: frequency=    1.00E+10
 sweep: ac ac0    end,  cpu clock=  3.05E-01 memory=    323 kb
>info:         ***** hspice job concluded
>alter:
 init: begin read circuit files,  cpu clock=  3.49E-01
       option post
       option brief
 init: end read circuit files,  cpu clock=  3.67E-01 memory=    149 kb
 init: begin check errors,  cpu clock=  3.67E-01
 init: end check errors,  cpu clock=  3.81E-01 memory=    329 kb
 init: begin setup matrix, pivot=    10 cpu clock=  3.81E-01
       establish matrix -- done,  cpu clock=  3.91E-01 memory=    337 kb
       re-order matrix -- done,  cpu clock=  3.98E-01 memory=    342 kb
 init: end setup matrix,  cpu clock=  4.07E-01 memory=    369 kb
 output: d:\seafile\大三下学期\模拟集成电路\project_twostageota\ota_test.sw0
 sweep: dc dc0    begin, #sweeps=2001 cpu clock=  4.25E-01
 sweep: dc dc0    end,  cpu clock=  5.14E-01 memory=    369 kb
 dcop: begin dcop,  cpu clock=  5.41E-01
 dcop: end dcop,  cpu clock=  5.50E-01 memory=    369 kb  tot_iter=      13
 output: d:\seafile\大三下学期\模拟集成电路\project_twostageota\ota_test.ac1
 sweep: ac ac0    begin, #sweeps=  71 cpu clock=  5.62E-01
 ac: frequency=    1.26E+03
 ac: frequency=    5.01E+03
 ac: frequency=    2.51E+04
 ac: frequency=    1.26E+05
 ac: frequency=    6.31E+05
 ac: frequency=    3.16E+06
 ac: frequency=    1.58E+07
 ac: frequency=    7.94E+07
 ac: frequency=    3.98E+08
 ac: frequency=    2.00E+09
 ac: frequency=    1.00E+10
 sweep: ac ac0    end,  cpu clock=  6.51E-01 memory=    370 kb
 dcop: begin dcop,  cpu clock=  6.64E-01
 dcop: end dcop,  cpu clock=  6.71E-01 memory=    369 kb  tot_iter=      16
 output: d:\seafile\大三下学期\模拟集成电路\project_twostageota\ota_test.ac2
 sweep: ac ac0    begin, #sweeps= 801 cpu clock=  6.88E-01
 ac: frequency=    1.02E+03
 ac: frequency=    6.31E+03
 ac: frequency=    3.98E+04
 ac: frequency=    2.51E+05
 ac: frequency=    1.58E+06
 ac: frequency=    1.00E+07
 ac: frequency=    6.31E+07
 ac: frequency=    3.98E+08
 ac: frequency=    2.51E+09
 ac: frequency=    1.58E+10
 ac: frequency=    1.00E+11
 sweep: ac ac0    end,  cpu clock=  8.31E-01 memory=    378 kb
>info:         ***** hspice job concluded
 Init: hspice initialization file: C:\synopsys\Hspice_A-2007.09\hspice.ini
 lic: Release hspice token(s)
