***** HSPICE  --  A-2007.09  32-BIT    (Aug 28 2007) 10:54:10 06/17/2018 winnt
 Input File: d:\seafile\大三下学期\模拟集成电路\project_telescopic\ota_test.sp
 lic:
 lic: FLEXlm: v8.5b
 lic: USER:   Zichen Fan           HOSTNAME: DESKTOP-V3SQE64
 lic: HOSTID: "985fd3462180 0205857feb80 985fd346217f 9a5fd346207e 9a5fd346257e"
 lic: Using FLEXlm license file:
 lic: C:\synopsys\Hspice_A-2007.09\hspice_2007-09.lic
 lic: Checkout 1 hspice;  Encryption code: AD47C1C891DA5D596A45
 lic: License/Maintenance for hspice will expire on 31-dec-2020/2007.9
 lic: NODE LOCKED license on hostid "985fd3462180 0205857feb80 985fd346217f 9a5f
 lic:
 Init: hspice initialization file: C:\synopsys\Hspice_A-2007.09\hspice.ini
 init: begin read circuit files,  cpu clock=  9.50E-02
       option post
       option brief
 init: end read circuit files,  cpu clock=  1.03E-01 memory=    280 kb
 init: begin check errors,  cpu clock=  1.03E-01
 init: end check errors,  cpu clock=  1.09E-01 memory=    282 kb
 init: begin setup matrix, pivot=    10 cpu clock=  1.09E-01
       establish matrix -- done,  cpu clock=  1.13E-01 memory=    294 kb
       re-order matrix -- done,  cpu clock=  1.15E-01 memory=    299 kb
 init: end setup matrix,  cpu clock=  1.20E-01 memory=    330 kb
 dcop: begin dcop,  cpu clock=  1.22E-01
 dcop: end dcop,  cpu clock=  1.37E-01 memory=    330 kb  tot_iter=     132
 output: d:\seafile\大三下学期\模拟集成电路\project_telescopic\ota_test.tr0
 sweep: tran tran0    begin, stop_t=  2.00E-08 #sweeps=2001 cpu clock=  2.28E-01
 tran: time= 2.15411E-09 tot_iter=      71   conv_iter=      25
 tran: time= 4.09211E-09 tot_iter=      95   conv_iter=      33
 tran: time= 6.46885E-09 tot_iter=     106   conv_iter=      38
 tran: time= 8.69679E-09 tot_iter=     112   conv_iter=      41
 tran: time= 1.06968E-08 tot_iter=     116   conv_iter=      43
 tran: time= 1.26968E-08 tot_iter=     120   conv_iter=      45
 tran: time= 1.46968E-08 tot_iter=     124   conv_iter=      47
 tran: time= 1.66968E-08 tot_iter=     128   conv_iter=      49
 tran: time= 1.86968E-08 tot_iter=     132   conv_iter=      51
 tran: time= 2.00000E-08 tot_iter=     136   conv_iter=      53
 sweep: tran tran0    end,  cpu clock=  2.97E-01 memory=    330 kb
>info:         ***** hspice job concluded
 Init: hspice initialization file: C:\synopsys\Hspice_A-2007.09\hspice.ini
 lic: Release hspice token(s)
