***** HSPICE  --  A-2007.09  32-BIT    (Aug 28 2007) 10:04:41 07/03/2018 winnt
 Input File: c:\users\zichen fan\desktop\project_telescopic_final\ota_test.sp
 lic:
 lic: FLEXlm: v8.5b
 lic: USER:   Zichen Fan           HOSTNAME: DESKTOP-V3SQE64
 lic: HOSTID: "0205857feb80 985fd346217f 9a5fd346207e 9a5fd346257e" PID:      22
 lic: Using FLEXlm license file:
 lic: C:\synopsys\Hspice_A-2007.09\hspice_2007-09.lic
 lic: Checkout 1 hspice;  Encryption code: AD47C1C891DA5D596A45
 lic: License/Maintenance for hspice will expire on 31-dec-2020/2007.9
 lic: NODE LOCKED license on hostid "0205857feb80 985fd346217f 9a5fd346207e 9a5f
 lic:
 Init: hspice initialization file: C:\synopsys\Hspice_A-2007.09\hspice.ini
 init: begin read circuit files,  cpu clock=  9.50E-02
       option post
       option brief
 init: end read circuit files,  cpu clock=  1.05E-01 memory=    280 kb
 init: begin check errors,  cpu clock=  1.05E-01
 init: end check errors,  cpu clock=  1.09E-01 memory=    282 kb
 init: begin setup matrix, pivot=    10 cpu clock=  1.09E-01
       establish matrix -- done,  cpu clock=  1.11E-01 memory=    294 kb
       re-order matrix -- done,  cpu clock=  1.13E-01 memory=    299 kb
 init: end setup matrix,  cpu clock=  1.19E-01 memory=    330 kb
 dcop: begin dcop,  cpu clock=  1.20E-01
 dcop: end dcop,  cpu clock=  1.41E-01 memory=    330 kb  tot_iter=     324
 output: c:\users\zichen fan\desktop\project_telescopic_final\ota_test.tr0
 sweep: tran tran0    begin, stop_t=  1.00E-07 #sweeps=**** cpu clock=  2.26E-01
 tran: time= 1.07555E-08 tot_iter=     139   conv_iter=      48
 tran: time= 2.35995E-08 tot_iter=     155   conv_iter=      54
 tran: time= 3.35995E-08 tot_iter=     161   conv_iter=      56
 tran: time= 4.35995E-08 tot_iter=     165   conv_iter=      58
 tran: time= 5.35995E-08 tot_iter=     169   conv_iter=      60
 tran: time= 6.35995E-08 tot_iter=     173   conv_iter=      62
 tran: time= 7.35995E-08 tot_iter=     177   conv_iter=      64
 tran: time= 8.35995E-08 tot_iter=     181   conv_iter=      66
 tran: time= 9.35995E-08 tot_iter=     185   conv_iter=      68
 tran: time= 1.00000E-07 tot_iter=     189   conv_iter=      70
 sweep: tran tran0    end,  cpu clock=  3.03E-01 memory=    331 kb
>info:         ***** hspice job concluded
 Init: hspice initialization file: C:\synopsys\Hspice_A-2007.09\hspice.ini
 lic: Release hspice token(s)
