***** HSPICE  --  A-2007.09  32-BIT    (Aug 28 2007) 03:53:28 07/04/2018 winnt
 Input File: c:\users\zichen fan\desktop\fully-differential-ota-design\project_t
 lic:
 lic: FLEXlm: v8.5b
 lic: USER:   Zichen Fan           HOSTNAME: DESKTOP-V3SQE64
 lic: HOSTID: "985fd3462180 0205857feb80 985fd346217f 9a5fd346207e 9a5fd346257e"
 lic: Using FLEXlm license file:
 lic: C:\synopsys\Hspice_A-2007.09\hspice_2007-09.lic
 lic: Checkout 1 hspice;  Encryption code: AD47C1C891DA5D596A45
 lic: License/Maintenance for hspice will expire on 31-dec-2020/2007.9
 lic: NODE LOCKED license on hostid "985fd3462180 0205857feb80 985fd346217f 9a5f
 lic:
 Init: hspice initialization file: C:\synopsys\Hspice_A-2007.09\hspice.ini
 init: begin read circuit files,  cpu clock=  9.40E-02
       option post
       option brief
 init: end read circuit files,  cpu clock=  1.09E-01 memory=    280 kb
 init: begin check errors,  cpu clock=  1.09E-01
 init: end check errors,  cpu clock=  1.09E-01 memory=    283 kb
 init: begin setup matrix, pivot=    10 cpu clock=  1.09E-01
       establish matrix -- done,  cpu clock=  1.09E-01 memory=    295 kb
       re-order matrix -- done,  cpu clock=  1.09E-01 memory=    300 kb
 init: end setup matrix,  cpu clock=  1.09E-01 memory=    330 kb
 dcop: begin dcop,  cpu clock=  1.25E-01
 dcop: end dcop,  cpu clock=  2.65E-01 memory=    330 kb  tot_iter=     323
 output: c:\users\zichen fan\desktop\fully-differential-ota-design\project_teles
 sweep: ac ac0    begin, #sweeps=  71 cpu clock=  2.65E-01
 ac: frequency=    1.26E+03
 ac: frequency=    5.01E+03
 ac: frequency=    2.51E+04
 ac: frequency=    1.26E+05
 ac: frequency=    6.31E+05
 ac: frequency=    3.16E+06
 ac: frequency=    1.58E+07
 ac: frequency=    7.94E+07
 ac: frequency=    3.98E+08
 ac: frequency=    2.00E+09
 ac: frequency=    1.00E+10
 sweep: ac ac0    end,  cpu clock=  3.39E-01 memory=    331 kb
>info:         ***** hspice job concluded
>alter:
 init: begin read circuit files,  cpu clock=  3.71E-01
       option post
       option brief
 init: end read circuit files,  cpu clock=  3.86E-01 memory=    280 kb
 init: begin check errors,  cpu clock=  3.86E-01
 init: end check errors,  cpu clock=  4.02E-01 memory=    459 kb
 init: begin setup matrix, pivot=    10 cpu clock=  4.02E-01
       establish matrix -- done,  cpu clock=  4.18E-01 memory=    471 kb
       re-order matrix -- done,  cpu clock=  4.18E-01 memory=    476 kb
 init: end setup matrix,  cpu clock=  4.18E-01 memory=    511 kb
 output: c:\users\zichen fan\desktop\fully-differential-ota-design\project_teles
 sweep: dc dc0    begin, #sweeps=2001 cpu clock=  4.33E-01
 sweep: dc dc0    end,  cpu clock=  5.66E-01 memory=    511 kb
 dcop: begin dcop,  cpu clock=  5.82E-01
 dcop: end dcop,  cpu clock=  5.97E-01 memory=    511 kb  tot_iter=     323
 output: c:\users\zichen fan\desktop\fully-differential-ota-design\project_teles
 sweep: ac ac0    begin, #sweeps=  71 cpu clock=  5.97E-01
 ac: frequency=    1.26E+03
 ac: frequency=    5.01E+03
 ac: frequency=    2.51E+04
 ac: frequency=    1.26E+05
 ac: frequency=    6.31E+05
 ac: frequency=    3.16E+06
 ac: frequency=    1.58E+07
 ac: frequency=    7.94E+07
 ac: frequency=    3.98E+08
 ac: frequency=    2.00E+09
 ac: frequency=    1.00E+10
 sweep: ac ac0    end,  cpu clock=  6.76E-01 memory=    512 kb
 dcop: begin dcop,  cpu clock=  6.91E-01
 dcop: end dcop,  cpu clock=  6.91E-01 memory=    511 kb  tot_iter=     326
 output: c:\users\zichen fan\desktop\fully-differential-ota-design\project_teles
 sweep: ac ac0    begin, #sweeps= 801 cpu clock=  7.07E-01
 ac: frequency=    1.02E+03
 ac: frequency=    6.31E+03
 ac: frequency=    3.98E+04
 ac: frequency=    2.51E+05
 ac: frequency=    1.58E+06
 ac: frequency=    1.00E+07
 ac: frequency=    6.31E+07
 ac: frequency=    3.98E+08
 ac: frequency=    2.51E+09
 ac: frequency=    1.58E+10
 ac: frequency=    1.00E+11
 sweep: ac ac0    end,  cpu clock=  8.32E-01 memory=    519 kb
>info:         ***** hspice job concluded
 Init: hspice initialization file: C:\synopsys\Hspice_A-2007.09\hspice.ini
 lic: Release hspice token(s)
