***** HSPICE  --  A-2007.09  32-BIT    (Aug 28 2007) 18:49:19 06/17/2018 winnt
 Input File: d:\seafile\大三下学期\模拟集成电路\project_telescopic\ota_test.sp
 lic:
 lic: FLEXlm: v8.5b
 lic: USER:   Zichen Fan           HOSTNAME: DESKTOP-V3SQE64
 lic: HOSTID: "985fd3462180 985fd346217f 9a5fd346207e 9a5fd346257e" PID:      88
 lic: Using FLEXlm license file:
 lic: C:\synopsys\Hspice_A-2007.09\hspice_2007-09.lic
 lic: Checkout 1 hspice;  Encryption code: AD47C1C891DA5D596A45
 lic: License/Maintenance for hspice will expire on 31-dec-2020/2007.9
 lic: NODE LOCKED license on hostid "985fd3462180 985fd346217f 9a5fd346207e 9a5f
 lic:
 Init: hspice initialization file: C:\synopsys\Hspice_A-2007.09\hspice.ini
 init: begin read circuit files,  cpu clock=  1.08E-01
       option post
       option brief
 init: end read circuit files,  cpu clock=  2.26E-01 memory=    280 kb
 init: begin check errors,  cpu clock=  2.26E-01
 init: end check errors,  cpu clock=  2.34E-01 memory=    282 kb
 init: begin setup matrix, pivot=    10 cpu clock=  2.34E-01
       establish matrix -- done,  cpu clock=  2.39E-01 memory=    294 kb
       re-order matrix -- done,  cpu clock=  2.42E-01 memory=    299 kb
 init: end setup matrix,  cpu clock=  2.52E-01 memory=    330 kb
 dcop: begin dcop,  cpu clock=  2.55E-01
 dcop: end dcop,  cpu clock=  2.87E-01 memory=    330 kb  tot_iter=     386
 output: d:\seafile\大三下学期\模拟集成电路\project_telescopic\ota_test.tr0
 sweep: tran tran0    begin, stop_t=  1.00E-07 #sweeps=**** cpu clock=  3.06E-01
 tran: time= 1.00350E-08 tot_iter=     113   conv_iter=      39
 tran: time= 2.20986E-08 tot_iter=     128   conv_iter=      44
 tran: time= 3.20986E-08 tot_iter=     134   conv_iter=      46
 tran: time= 4.20986E-08 tot_iter=     140   conv_iter=      48
 tran: time= 5.20986E-08 tot_iter=     146   conv_iter=      50
 tran: time= 6.20986E-08 tot_iter=     150   conv_iter=      52
 tran: time= 7.20986E-08 tot_iter=     154   conv_iter=      54
 tran: time= 8.20986E-08 tot_iter=     159   conv_iter=      56
 tran: time= 9.20986E-08 tot_iter=     165   conv_iter=      58
 tran: time= 1.00000E-07 tot_iter=     171   conv_iter=      60
 sweep: tran tran0    end,  cpu clock=  4.14E-01 memory=    331 kb
>info:         ***** hspice job concluded
 Init: hspice initialization file: C:\synopsys\Hspice_A-2007.09\hspice.ini
 lic: Release hspice token(s)
